<?xml version="1.0" encoding="UTF-8"?>

<!-- generated on 2024-11-07 03:49:19 by Eclipse SUMO GUI Version 1.21.0
<sumoConfiguration xmlns:xsi="http://www.w3.org/2001/XMLSchema-instance" xsi:noNamespaceSchemaLocation="http://sumo.dlr.de/xsd/sumoConfiguration.xsd">

    <input>
        <net-file value="environments/cross/cross.net.xml"/>
        <route-files value="environments/cross/cross.rou.xml"/>
        <additional-files value="environments/cross/cross.tls.add.xml,environments/input_additional.add.xml"/>
    </input>

    <time>
        <begin value="0"/>
        <end value="180"/>
        <step-length value="0.5"/>
    </time>

    <report>
        <xml-validation value="never"/>
    </report>

    <gui_only>
        <gui-settings-file value="environments/cross/cross.settings.xml"/>
        <start value="true"/>
    </gui_only>

</sumoConfiguration>
